<?xml version="1.0" encoding="UTF-8"?>

<!-- generated on Mon Feb  1 12:42:32 2021 by Eclipse SUMO duarouter Version 1.8.0
<configuration xmlns:xsi="http://www.w3.org/2001/XMLSchema-instance" xsi:noNamespaceSchemaLocation="http://sumo.dlr.de/xsd/duarouterConfiguration.xsd">

    <input>
        <net-file value="/home/automan/Project3/Human-like/scenarios/left_turn/map.net.xml"/>
        <route-files value="/tmp/tmp8qosbq4s/trips.trips.xml"/>
    </input>

    <output>
        <output-file value="/home/automan/Project3/Human-like/scenarios/left_turn/traffic/horizontal_66.rou.xml"/>
        <alternatives-output value="/home/automan/Project3/Human-like/scenarios/left_turn/traffic/horizontal_66.rou.alt.xml"/>
    </output>

    <processing>
        <unsorted-input value="true"/>
        <repair value="true"/>
    </processing>

    <report>
        <error-log value="/tmp/smarts/_duarouter_routing/traffic/horizontal_66.log"/>
        <no-step-log value="true"/>
    </report>

    <random_number>
        <seed value="66"/>
    </random_number>

</configuration>
-->

<routes xmlns:xsi="http://www.w3.org/2001/XMLSchema-instance" xsi:noNamespaceSchemaLocation="http://sumo.dlr.de/xsd/routes_file.xsd">
    <vType id="actor-car-2737183883060806789" minGap="2.50" speedFactor="normc(0.50,0.10,0.20,2.00)" vClass="passenger" impatience="0.50" lcCooperative="0.5" lcImpatience="0.2" jmDriveAfterYellowTime="1.0" accel="2.6" decel="4.5" sigma="0.5"/>
    <vehicle id="car-flow-route-edge-east-EW_0_random-edge-west-EW_0_random--6144318532509872561--7000378399451379660--2-1.0" type="actor-car-2737183883060806789" depart="0.00" departLane="0" departPos="random" departSpeed="max" arrivalLane="0" arrivalPos="random">
        <route edges="edge-east-EW edge-west-EW"/>
    </vehicle>
    <vehicle id="car-flow-route-edge-east-EW_0_random-edge-west-EW_0_random--6144318532509872561--7000378399451379660--3-1.0" type="actor-car-2737183883060806789" depart="0.00" departLane="0" departPos="random" departSpeed="max" arrivalLane="0" arrivalPos="random">
        <route edges="edge-east-EW edge-west-EW"/>
    </vehicle>
    <vehicle id="car-flow-route-edge-east-EW_1_random-edge-west-EW_1_random-136673656367043389--7000378399451379660--8-1.0" type="actor-car-2737183883060806789" depart="0.00" departLane="1" departPos="random" departSpeed="max" arrivalLane="1" arrivalPos="random">
        <route edges="edge-east-EW edge-west-EW"/>
    </vehicle>
    <vehicle id="car-flow-route-edge-east-EW_1_random-edge-west-EW_1_random-136673656367043389--7000378399451379660--9-1.0" type="actor-car-2737183883060806789" depart="0.00" departLane="1" departPos="random" departSpeed="max" arrivalLane="1" arrivalPos="random">
        <route edges="edge-east-EW edge-west-EW"/>
    </vehicle>
    <vehicle id="car-flow-route-edge-south-SN_0_random-edge-east-WE_0_random-9160490921737223754--7000378399451379660--4-1.0" type="actor-car-2737183883060806789" depart="0.00" departLane="0" departPos="random" departSpeed="max" arrivalLane="0" arrivalPos="random">
        <route edges="edge-south-SN edge-east-WE"/>
    </vehicle>
    <vehicle id="car-flow-route-edge-south-SN_0_random-edge-east-WE_0_random-9160490921737223754--7000378399451379660--5-1.0" type="actor-car-2737183883060806789" depart="0.00" departLane="0" departPos="random" departSpeed="max" arrivalLane="0" arrivalPos="random">
        <route edges="edge-south-SN edge-east-WE"/>
    </vehicle>
    <vehicle id="car-flow-route-edge-west-WE_0_random-edge-east-WE_0_random--1791301837942784894--7000378399451379660--0-1.0" type="actor-car-2737183883060806789" depart="0.00" departLane="0" departPos="random" departSpeed="max" arrivalLane="0" arrivalPos="random">
        <route edges="edge-west-WE edge-east-WE"/>
    </vehicle>
    <vehicle id="car-flow-route-edge-west-WE_0_random-edge-east-WE_0_random--1791301837942784894--7000378399451379660--1-1.0" type="actor-car-2737183883060806789" depart="0.00" departLane="0" departPos="random" departSpeed="max" arrivalLane="0" arrivalPos="random">
        <route edges="edge-west-WE edge-east-WE"/>
    </vehicle>
    <vehicle id="car-flow-route-edge-west-WE_1_random-edge-east-WE_1_random-795606458652889232--7000378399451379660--6-1.0" type="actor-car-2737183883060806789" depart="0.00" departLane="1" departPos="random" departSpeed="max" arrivalLane="1" arrivalPos="random">
        <route edges="edge-west-WE edge-east-WE"/>
    </vehicle>
    <vehicle id="car-flow-route-edge-west-WE_1_random-edge-east-WE_1_random-795606458652889232--7000378399451379660--7-1.0" type="actor-car-2737183883060806789" depart="0.00" departLane="1" departPos="random" departSpeed="max" arrivalLane="1" arrivalPos="random">
        <route edges="edge-west-WE edge-east-WE"/>
    </vehicle>
    <vType id="actor-im_car-1407397623657450617" minGap="2.50" speedFactor="normc(0.50,0.10,0.20,2.00)" vClass="passenger" impatience="1.00" lcCooperative="0.25" lcImpatience="1" jmDriveAfterYellowTime="1.0" jmDriveAfterRedTime="1.5" accel="2.6" decel="4.5" sigma="0.5"/>
    <vehicle id="im_car-flow-route-edge-east-EW_0_random-edge-west-EW_0_random--6144318532509872561--7000378399451379660--2-0.0" type="actor-im_car-1407397623657450617" depart="0.00" departLane="0" departPos="random" departSpeed="max" arrivalLane="0" arrivalPos="random">
        <route edges="edge-east-EW edge-west-EW"/>
    </vehicle>
    <vehicle id="im_car-flow-route-edge-east-EW_0_random-edge-west-EW_0_random--6144318532509872561--7000378399451379660--3-0.0" type="actor-im_car-1407397623657450617" depart="0.00" departLane="0" departPos="random" departSpeed="max" arrivalLane="0" arrivalPos="random">
        <route edges="edge-east-EW edge-west-EW"/>
    </vehicle>
    <vehicle id="im_car-flow-route-edge-east-EW_1_random-edge-west-EW_1_random-136673656367043389--7000378399451379660--8-0.0" type="actor-im_car-1407397623657450617" depart="0.00" departLane="1" departPos="random" departSpeed="max" arrivalLane="1" arrivalPos="random">
        <route edges="edge-east-EW edge-west-EW"/>
    </vehicle>
    <vehicle id="im_car-flow-route-edge-east-EW_1_random-edge-west-EW_1_random-136673656367043389--7000378399451379660--9-0.0" type="actor-im_car-1407397623657450617" depart="0.00" departLane="1" departPos="random" departSpeed="max" arrivalLane="1" arrivalPos="random">
        <route edges="edge-east-EW edge-west-EW"/>
    </vehicle>
    <vehicle id="im_car-flow-route-edge-south-SN_0_random-edge-east-WE_0_random-9160490921737223754--7000378399451379660--4-0.0" type="actor-im_car-1407397623657450617" depart="0.00" departLane="0" departPos="random" departSpeed="max" arrivalLane="0" arrivalPos="random">
        <route edges="edge-south-SN edge-east-WE"/>
    </vehicle>
    <vehicle id="im_car-flow-route-edge-south-SN_0_random-edge-east-WE_0_random-9160490921737223754--7000378399451379660--5-0.0" type="actor-im_car-1407397623657450617" depart="0.00" departLane="0" departPos="random" departSpeed="max" arrivalLane="0" arrivalPos="random">
        <route edges="edge-south-SN edge-east-WE"/>
    </vehicle>
    <vehicle id="im_car-flow-route-edge-west-WE_0_random-edge-east-WE_0_random--1791301837942784894--7000378399451379660--0-0.0" type="actor-im_car-1407397623657450617" depart="0.00" departLane="0" departPos="random" departSpeed="max" arrivalLane="0" arrivalPos="random">
        <route edges="edge-west-WE edge-east-WE"/>
    </vehicle>
    <vehicle id="im_car-flow-route-edge-west-WE_0_random-edge-east-WE_0_random--1791301837942784894--7000378399451379660--1-0.0" type="actor-im_car-1407397623657450617" depart="0.00" departLane="0" departPos="random" departSpeed="max" arrivalLane="0" arrivalPos="random">
        <route edges="edge-west-WE edge-east-WE"/>
    </vehicle>
    <vehicle id="im_car-flow-route-edge-west-WE_1_random-edge-east-WE_1_random-795606458652889232--7000378399451379660--6-0.0" type="actor-im_car-1407397623657450617" depart="0.00" departLane="1" departPos="random" departSpeed="max" arrivalLane="1" arrivalPos="random">
        <route edges="edge-west-WE edge-east-WE"/>
    </vehicle>
    <vehicle id="im_car-flow-route-edge-west-WE_1_random-edge-east-WE_1_random-795606458652889232--7000378399451379660--7-0.0" type="actor-im_car-1407397623657450617" depart="0.00" departLane="1" departPos="random" departSpeed="max" arrivalLane="1" arrivalPos="random">
        <route edges="edge-west-WE edge-east-WE"/>
    </vehicle>
    <vehicle id="car-flow-route-edge-east-EW_0_random-edge-west-EW_0_random--6144318532509872561--7000378399451379660--2-1.1" type="actor-car-2737183883060806789" depart="720.00" departLane="0" departPos="random" departSpeed="max" arrivalLane="0" arrivalPos="random">
        <route edges="edge-east-EW edge-west-EW"/>
    </vehicle>
    <vehicle id="car-flow-route-edge-east-EW_0_random-edge-west-EW_0_random--6144318532509872561--7000378399451379660--3-1.1" type="actor-car-2737183883060806789" depart="720.00" departLane="0" departPos="random" departSpeed="max" arrivalLane="0" arrivalPos="random">
        <route edges="edge-east-EW edge-west-EW"/>
    </vehicle>
    <vehicle id="car-flow-route-edge-east-EW_1_random-edge-west-EW_1_random-136673656367043389--7000378399451379660--8-1.1" type="actor-car-2737183883060806789" depart="720.00" departLane="1" departPos="random" departSpeed="max" arrivalLane="1" arrivalPos="random">
        <route edges="edge-east-EW edge-west-EW"/>
    </vehicle>
    <vehicle id="car-flow-route-edge-east-EW_1_random-edge-west-EW_1_random-136673656367043389--7000378399451379660--9-1.1" type="actor-car-2737183883060806789" depart="720.00" departLane="1" departPos="random" departSpeed="max" arrivalLane="1" arrivalPos="random">
        <route edges="edge-east-EW edge-west-EW"/>
    </vehicle>
    <vehicle id="car-flow-route-edge-south-SN_0_random-edge-east-WE_0_random-9160490921737223754--7000378399451379660--4-1.1" type="actor-car-2737183883060806789" depart="720.00" departLane="0" departPos="random" departSpeed="max" arrivalLane="0" arrivalPos="random">
        <route edges="edge-south-SN edge-east-WE"/>
    </vehicle>
    <vehicle id="car-flow-route-edge-south-SN_0_random-edge-east-WE_0_random-9160490921737223754--7000378399451379660--5-1.1" type="actor-car-2737183883060806789" depart="720.00" departLane="0" departPos="random" departSpeed="max" arrivalLane="0" arrivalPos="random">
        <route edges="edge-south-SN edge-east-WE"/>
    </vehicle>
    <vehicle id="car-flow-route-edge-west-WE_0_random-edge-east-WE_0_random--1791301837942784894--7000378399451379660--0-1.1" type="actor-car-2737183883060806789" depart="720.00" departLane="0" departPos="random" departSpeed="max" arrivalLane="0" arrivalPos="random">
        <route edges="edge-west-WE edge-east-WE"/>
    </vehicle>
    <vehicle id="car-flow-route-edge-west-WE_0_random-edge-east-WE_0_random--1791301837942784894--7000378399451379660--1-1.1" type="actor-car-2737183883060806789" depart="720.00" departLane="0" departPos="random" departSpeed="max" arrivalLane="0" arrivalPos="random">
        <route edges="edge-west-WE edge-east-WE"/>
    </vehicle>
    <vehicle id="car-flow-route-edge-west-WE_1_random-edge-east-WE_1_random-795606458652889232--7000378399451379660--6-1.1" type="actor-car-2737183883060806789" depart="720.00" departLane="1" departPos="random" departSpeed="max" arrivalLane="1" arrivalPos="random">
        <route edges="edge-west-WE edge-east-WE"/>
    </vehicle>
    <vehicle id="car-flow-route-edge-west-WE_1_random-edge-east-WE_1_random-795606458652889232--7000378399451379660--7-1.1" type="actor-car-2737183883060806789" depart="720.00" departLane="1" departPos="random" departSpeed="max" arrivalLane="1" arrivalPos="random">
        <route edges="edge-west-WE edge-east-WE"/>
    </vehicle>
    <vehicle id="im_car-flow-route-edge-east-EW_0_random-edge-west-EW_0_random--6144318532509872561--7000378399451379660--2-0.1" type="actor-im_car-1407397623657450617" depart="720.00" departLane="0" departPos="random" departSpeed="max" arrivalLane="0" arrivalPos="random">
        <route edges="edge-east-EW edge-west-EW"/>
    </vehicle>
    <vehicle id="im_car-flow-route-edge-east-EW_0_random-edge-west-EW_0_random--6144318532509872561--7000378399451379660--3-0.1" type="actor-im_car-1407397623657450617" depart="720.00" departLane="0" departPos="random" departSpeed="max" arrivalLane="0" arrivalPos="random">
        <route edges="edge-east-EW edge-west-EW"/>
    </vehicle>
    <vehicle id="im_car-flow-route-edge-east-EW_1_random-edge-west-EW_1_random-136673656367043389--7000378399451379660--8-0.1" type="actor-im_car-1407397623657450617" depart="720.00" departLane="1" departPos="random" departSpeed="max" arrivalLane="1" arrivalPos="random">
        <route edges="edge-east-EW edge-west-EW"/>
    </vehicle>
    <vehicle id="im_car-flow-route-edge-east-EW_1_random-edge-west-EW_1_random-136673656367043389--7000378399451379660--9-0.1" type="actor-im_car-1407397623657450617" depart="720.00" departLane="1" departPos="random" departSpeed="max" arrivalLane="1" arrivalPos="random">
        <route edges="edge-east-EW edge-west-EW"/>
    </vehicle>
    <vehicle id="im_car-flow-route-edge-south-SN_0_random-edge-east-WE_0_random-9160490921737223754--7000378399451379660--4-0.1" type="actor-im_car-1407397623657450617" depart="720.00" departLane="0" departPos="random" departSpeed="max" arrivalLane="0" arrivalPos="random">
        <route edges="edge-south-SN edge-east-WE"/>
    </vehicle>
    <vehicle id="im_car-flow-route-edge-south-SN_0_random-edge-east-WE_0_random-9160490921737223754--7000378399451379660--5-0.1" type="actor-im_car-1407397623657450617" depart="720.00" departLane="0" departPos="random" departSpeed="max" arrivalLane="0" arrivalPos="random">
        <route edges="edge-south-SN edge-east-WE"/>
    </vehicle>
    <vehicle id="im_car-flow-route-edge-west-WE_0_random-edge-east-WE_0_random--1791301837942784894--7000378399451379660--0-0.1" type="actor-im_car-1407397623657450617" depart="720.00" departLane="0" departPos="random" departSpeed="max" arrivalLane="0" arrivalPos="random">
        <route edges="edge-west-WE edge-east-WE"/>
    </vehicle>
    <vehicle id="im_car-flow-route-edge-west-WE_0_random-edge-east-WE_0_random--1791301837942784894--7000378399451379660--1-0.1" type="actor-im_car-1407397623657450617" depart="720.00" departLane="0" departPos="random" departSpeed="max" arrivalLane="0" arrivalPos="random">
        <route edges="edge-west-WE edge-east-WE"/>
    </vehicle>
    <vehicle id="im_car-flow-route-edge-west-WE_1_random-edge-east-WE_1_random-795606458652889232--7000378399451379660--6-0.1" type="actor-im_car-1407397623657450617" depart="720.00" departLane="1" departPos="random" departSpeed="max" arrivalLane="1" arrivalPos="random">
        <route edges="edge-west-WE edge-east-WE"/>
    </vehicle>
    <vehicle id="im_car-flow-route-edge-west-WE_1_random-edge-east-WE_1_random-795606458652889232--7000378399451379660--7-0.1" type="actor-im_car-1407397623657450617" depart="720.00" departLane="1" departPos="random" departSpeed="max" arrivalLane="1" arrivalPos="random">
        <route edges="edge-west-WE edge-east-WE"/>
    </vehicle>
    <vehicle id="car-flow-route-edge-east-EW_0_random-edge-west-EW_0_random--6144318532509872561--7000378399451379660--2-1.2" type="actor-car-2737183883060806789" depart="1440.00" departLane="0" departPos="random" departSpeed="max" arrivalLane="0" arrivalPos="random">
        <route edges="edge-east-EW edge-west-EW"/>
    </vehicle>
    <vehicle id="car-flow-route-edge-east-EW_0_random-edge-west-EW_0_random--6144318532509872561--7000378399451379660--3-1.2" type="actor-car-2737183883060806789" depart="1440.00" departLane="0" departPos="random" departSpeed="max" arrivalLane="0" arrivalPos="random">
        <route edges="edge-east-EW edge-west-EW"/>
    </vehicle>
    <vehicle id="car-flow-route-edge-east-EW_1_random-edge-west-EW_1_random-136673656367043389--7000378399451379660--8-1.2" type="actor-car-2737183883060806789" depart="1440.00" departLane="1" departPos="random" departSpeed="max" arrivalLane="1" arrivalPos="random">
        <route edges="edge-east-EW edge-west-EW"/>
    </vehicle>
    <vehicle id="car-flow-route-edge-east-EW_1_random-edge-west-EW_1_random-136673656367043389--7000378399451379660--9-1.2" type="actor-car-2737183883060806789" depart="1440.00" departLane="1" departPos="random" departSpeed="max" arrivalLane="1" arrivalPos="random">
        <route edges="edge-east-EW edge-west-EW"/>
    </vehicle>
    <vehicle id="car-flow-route-edge-south-SN_0_random-edge-east-WE_0_random-9160490921737223754--7000378399451379660--4-1.2" type="actor-car-2737183883060806789" depart="1440.00" departLane="0" departPos="random" departSpeed="max" arrivalLane="0" arrivalPos="random">
        <route edges="edge-south-SN edge-east-WE"/>
    </vehicle>
    <vehicle id="car-flow-route-edge-south-SN_0_random-edge-east-WE_0_random-9160490921737223754--7000378399451379660--5-1.2" type="actor-car-2737183883060806789" depart="1440.00" departLane="0" departPos="random" departSpeed="max" arrivalLane="0" arrivalPos="random">
        <route edges="edge-south-SN edge-east-WE"/>
    </vehicle>
    <vehicle id="car-flow-route-edge-west-WE_0_random-edge-east-WE_0_random--1791301837942784894--7000378399451379660--0-1.2" type="actor-car-2737183883060806789" depart="1440.00" departLane="0" departPos="random" departSpeed="max" arrivalLane="0" arrivalPos="random">
        <route edges="edge-west-WE edge-east-WE"/>
    </vehicle>
    <vehicle id="car-flow-route-edge-west-WE_0_random-edge-east-WE_0_random--1791301837942784894--7000378399451379660--1-1.2" type="actor-car-2737183883060806789" depart="1440.00" departLane="0" departPos="random" departSpeed="max" arrivalLane="0" arrivalPos="random">
        <route edges="edge-west-WE edge-east-WE"/>
    </vehicle>
    <vehicle id="car-flow-route-edge-west-WE_1_random-edge-east-WE_1_random-795606458652889232--7000378399451379660--6-1.2" type="actor-car-2737183883060806789" depart="1440.00" departLane="1" departPos="random" departSpeed="max" arrivalLane="1" arrivalPos="random">
        <route edges="edge-west-WE edge-east-WE"/>
    </vehicle>
    <vehicle id="car-flow-route-edge-west-WE_1_random-edge-east-WE_1_random-795606458652889232--7000378399451379660--7-1.2" type="actor-car-2737183883060806789" depart="1440.00" departLane="1" departPos="random" departSpeed="max" arrivalLane="1" arrivalPos="random">
        <route edges="edge-west-WE edge-east-WE"/>
    </vehicle>
    <vehicle id="im_car-flow-route-edge-east-EW_0_random-edge-west-EW_0_random--6144318532509872561--7000378399451379660--2-0.2" type="actor-im_car-1407397623657450617" depart="1440.00" departLane="0" departPos="random" departSpeed="max" arrivalLane="0" arrivalPos="random">
        <route edges="edge-east-EW edge-west-EW"/>
    </vehicle>
    <vehicle id="im_car-flow-route-edge-east-EW_0_random-edge-west-EW_0_random--6144318532509872561--7000378399451379660--3-0.2" type="actor-im_car-1407397623657450617" depart="1440.00" departLane="0" departPos="random" departSpeed="max" arrivalLane="0" arrivalPos="random">
        <route edges="edge-east-EW edge-west-EW"/>
    </vehicle>
    <vehicle id="im_car-flow-route-edge-east-EW_1_random-edge-west-EW_1_random-136673656367043389--7000378399451379660--8-0.2" type="actor-im_car-1407397623657450617" depart="1440.00" departLane="1" departPos="random" departSpeed="max" arrivalLane="1" arrivalPos="random">
        <route edges="edge-east-EW edge-west-EW"/>
    </vehicle>
    <vehicle id="im_car-flow-route-edge-east-EW_1_random-edge-west-EW_1_random-136673656367043389--7000378399451379660--9-0.2" type="actor-im_car-1407397623657450617" depart="1440.00" departLane="1" departPos="random" departSpeed="max" arrivalLane="1" arrivalPos="random">
        <route edges="edge-east-EW edge-west-EW"/>
    </vehicle>
    <vehicle id="im_car-flow-route-edge-south-SN_0_random-edge-east-WE_0_random-9160490921737223754--7000378399451379660--4-0.2" type="actor-im_car-1407397623657450617" depart="1440.00" departLane="0" departPos="random" departSpeed="max" arrivalLane="0" arrivalPos="random">
        <route edges="edge-south-SN edge-east-WE"/>
    </vehicle>
    <vehicle id="im_car-flow-route-edge-south-SN_0_random-edge-east-WE_0_random-9160490921737223754--7000378399451379660--5-0.2" type="actor-im_car-1407397623657450617" depart="1440.00" departLane="0" departPos="random" departSpeed="max" arrivalLane="0" arrivalPos="random">
        <route edges="edge-south-SN edge-east-WE"/>
    </vehicle>
    <vehicle id="im_car-flow-route-edge-west-WE_0_random-edge-east-WE_0_random--1791301837942784894--7000378399451379660--0-0.2" type="actor-im_car-1407397623657450617" depart="1440.00" departLane="0" departPos="random" departSpeed="max" arrivalLane="0" arrivalPos="random">
        <route edges="edge-west-WE edge-east-WE"/>
    </vehicle>
    <vehicle id="im_car-flow-route-edge-west-WE_0_random-edge-east-WE_0_random--1791301837942784894--7000378399451379660--1-0.2" type="actor-im_car-1407397623657450617" depart="1440.00" departLane="0" departPos="random" departSpeed="max" arrivalLane="0" arrivalPos="random">
        <route edges="edge-west-WE edge-east-WE"/>
    </vehicle>
    <vehicle id="im_car-flow-route-edge-west-WE_1_random-edge-east-WE_1_random-795606458652889232--7000378399451379660--6-0.2" type="actor-im_car-1407397623657450617" depart="1440.00" departLane="1" departPos="random" departSpeed="max" arrivalLane="1" arrivalPos="random">
        <route edges="edge-west-WE edge-east-WE"/>
    </vehicle>
    <vehicle id="im_car-flow-route-edge-west-WE_1_random-edge-east-WE_1_random-795606458652889232--7000378399451379660--7-0.2" type="actor-im_car-1407397623657450617" depart="1440.00" departLane="1" departPos="random" departSpeed="max" arrivalLane="1" arrivalPos="random">
        <route edges="edge-west-WE edge-east-WE"/>
    </vehicle>
    <vehicle id="car-flow-route-edge-east-EW_0_random-edge-west-EW_0_random--6144318532509872561--7000378399451379660--2-1.3" type="actor-car-2737183883060806789" depart="2160.00" departLane="0" departPos="random" departSpeed="max" arrivalLane="0" arrivalPos="random">
        <route edges="edge-east-EW edge-west-EW"/>
    </vehicle>
    <vehicle id="car-flow-route-edge-east-EW_0_random-edge-west-EW_0_random--6144318532509872561--7000378399451379660--3-1.3" type="actor-car-2737183883060806789" depart="2160.00" departLane="0" departPos="random" departSpeed="max" arrivalLane="0" arrivalPos="random">
        <route edges="edge-east-EW edge-west-EW"/>
    </vehicle>
    <vehicle id="car-flow-route-edge-east-EW_1_random-edge-west-EW_1_random-136673656367043389--7000378399451379660--8-1.3" type="actor-car-2737183883060806789" depart="2160.00" departLane="1" departPos="random" departSpeed="max" arrivalLane="1" arrivalPos="random">
        <route edges="edge-east-EW edge-west-EW"/>
    </vehicle>
    <vehicle id="car-flow-route-edge-east-EW_1_random-edge-west-EW_1_random-136673656367043389--7000378399451379660--9-1.3" type="actor-car-2737183883060806789" depart="2160.00" departLane="1" departPos="random" departSpeed="max" arrivalLane="1" arrivalPos="random">
        <route edges="edge-east-EW edge-west-EW"/>
    </vehicle>
    <vehicle id="car-flow-route-edge-south-SN_0_random-edge-east-WE_0_random-9160490921737223754--7000378399451379660--4-1.3" type="actor-car-2737183883060806789" depart="2160.00" departLane="0" departPos="random" departSpeed="max" arrivalLane="0" arrivalPos="random">
        <route edges="edge-south-SN edge-east-WE"/>
    </vehicle>
    <vehicle id="car-flow-route-edge-south-SN_0_random-edge-east-WE_0_random-9160490921737223754--7000378399451379660--5-1.3" type="actor-car-2737183883060806789" depart="2160.00" departLane="0" departPos="random" departSpeed="max" arrivalLane="0" arrivalPos="random">
        <route edges="edge-south-SN edge-east-WE"/>
    </vehicle>
    <vehicle id="car-flow-route-edge-west-WE_0_random-edge-east-WE_0_random--1791301837942784894--7000378399451379660--0-1.3" type="actor-car-2737183883060806789" depart="2160.00" departLane="0" departPos="random" departSpeed="max" arrivalLane="0" arrivalPos="random">
        <route edges="edge-west-WE edge-east-WE"/>
    </vehicle>
    <vehicle id="car-flow-route-edge-west-WE_0_random-edge-east-WE_0_random--1791301837942784894--7000378399451379660--1-1.3" type="actor-car-2737183883060806789" depart="2160.00" departLane="0" departPos="random" departSpeed="max" arrivalLane="0" arrivalPos="random">
        <route edges="edge-west-WE edge-east-WE"/>
    </vehicle>
    <vehicle id="car-flow-route-edge-west-WE_1_random-edge-east-WE_1_random-795606458652889232--7000378399451379660--6-1.3" type="actor-car-2737183883060806789" depart="2160.00" departLane="1" departPos="random" departSpeed="max" arrivalLane="1" arrivalPos="random">
        <route edges="edge-west-WE edge-east-WE"/>
    </vehicle>
    <vehicle id="car-flow-route-edge-west-WE_1_random-edge-east-WE_1_random-795606458652889232--7000378399451379660--7-1.3" type="actor-car-2737183883060806789" depart="2160.00" departLane="1" departPos="random" departSpeed="max" arrivalLane="1" arrivalPos="random">
        <route edges="edge-west-WE edge-east-WE"/>
    </vehicle>
    <vehicle id="im_car-flow-route-edge-east-EW_0_random-edge-west-EW_0_random--6144318532509872561--7000378399451379660--2-0.3" type="actor-im_car-1407397623657450617" depart="2160.00" departLane="0" departPos="random" departSpeed="max" arrivalLane="0" arrivalPos="random">
        <route edges="edge-east-EW edge-west-EW"/>
    </vehicle>
    <vehicle id="im_car-flow-route-edge-east-EW_0_random-edge-west-EW_0_random--6144318532509872561--7000378399451379660--3-0.3" type="actor-im_car-1407397623657450617" depart="2160.00" departLane="0" departPos="random" departSpeed="max" arrivalLane="0" arrivalPos="random">
        <route edges="edge-east-EW edge-west-EW"/>
    </vehicle>
    <vehicle id="im_car-flow-route-edge-east-EW_1_random-edge-west-EW_1_random-136673656367043389--7000378399451379660--8-0.3" type="actor-im_car-1407397623657450617" depart="2160.00" departLane="1" departPos="random" departSpeed="max" arrivalLane="1" arrivalPos="random">
        <route edges="edge-east-EW edge-west-EW"/>
    </vehicle>
    <vehicle id="im_car-flow-route-edge-east-EW_1_random-edge-west-EW_1_random-136673656367043389--7000378399451379660--9-0.3" type="actor-im_car-1407397623657450617" depart="2160.00" departLane="1" departPos="random" departSpeed="max" arrivalLane="1" arrivalPos="random">
        <route edges="edge-east-EW edge-west-EW"/>
    </vehicle>
    <vehicle id="im_car-flow-route-edge-south-SN_0_random-edge-east-WE_0_random-9160490921737223754--7000378399451379660--4-0.3" type="actor-im_car-1407397623657450617" depart="2160.00" departLane="0" departPos="random" departSpeed="max" arrivalLane="0" arrivalPos="random">
        <route edges="edge-south-SN edge-east-WE"/>
    </vehicle>
    <vehicle id="im_car-flow-route-edge-south-SN_0_random-edge-east-WE_0_random-9160490921737223754--7000378399451379660--5-0.3" type="actor-im_car-1407397623657450617" depart="2160.00" departLane="0" departPos="random" departSpeed="max" arrivalLane="0" arrivalPos="random">
        <route edges="edge-south-SN edge-east-WE"/>
    </vehicle>
    <vehicle id="im_car-flow-route-edge-west-WE_0_random-edge-east-WE_0_random--1791301837942784894--7000378399451379660--0-0.3" type="actor-im_car-1407397623657450617" depart="2160.00" departLane="0" departPos="random" departSpeed="max" arrivalLane="0" arrivalPos="random">
        <route edges="edge-west-WE edge-east-WE"/>
    </vehicle>
    <vehicle id="im_car-flow-route-edge-west-WE_0_random-edge-east-WE_0_random--1791301837942784894--7000378399451379660--1-0.3" type="actor-im_car-1407397623657450617" depart="2160.00" departLane="0" departPos="random" departSpeed="max" arrivalLane="0" arrivalPos="random">
        <route edges="edge-west-WE edge-east-WE"/>
    </vehicle>
    <vehicle id="im_car-flow-route-edge-west-WE_1_random-edge-east-WE_1_random-795606458652889232--7000378399451379660--6-0.3" type="actor-im_car-1407397623657450617" depart="2160.00" departLane="1" departPos="random" departSpeed="max" arrivalLane="1" arrivalPos="random">
        <route edges="edge-west-WE edge-east-WE"/>
    </vehicle>
    <vehicle id="im_car-flow-route-edge-west-WE_1_random-edge-east-WE_1_random-795606458652889232--7000378399451379660--7-0.3" type="actor-im_car-1407397623657450617" depart="2160.00" departLane="1" departPos="random" departSpeed="max" arrivalLane="1" arrivalPos="random">
        <route edges="edge-west-WE edge-east-WE"/>
    </vehicle>
    <vehicle id="car-flow-route-edge-east-EW_0_random-edge-west-EW_0_random--6144318532509872561--7000378399451379660--2-1.4" type="actor-car-2737183883060806789" depart="2880.00" departLane="0" departPos="random" departSpeed="max" arrivalLane="0" arrivalPos="random">
        <route edges="edge-east-EW edge-west-EW"/>
    </vehicle>
    <vehicle id="car-flow-route-edge-east-EW_0_random-edge-west-EW_0_random--6144318532509872561--7000378399451379660--3-1.4" type="actor-car-2737183883060806789" depart="2880.00" departLane="0" departPos="random" departSpeed="max" arrivalLane="0" arrivalPos="random">
        <route edges="edge-east-EW edge-west-EW"/>
    </vehicle>
    <vehicle id="car-flow-route-edge-east-EW_1_random-edge-west-EW_1_random-136673656367043389--7000378399451379660--8-1.4" type="actor-car-2737183883060806789" depart="2880.00" departLane="1" departPos="random" departSpeed="max" arrivalLane="1" arrivalPos="random">
        <route edges="edge-east-EW edge-west-EW"/>
    </vehicle>
    <vehicle id="car-flow-route-edge-east-EW_1_random-edge-west-EW_1_random-136673656367043389--7000378399451379660--9-1.4" type="actor-car-2737183883060806789" depart="2880.00" departLane="1" departPos="random" departSpeed="max" arrivalLane="1" arrivalPos="random">
        <route edges="edge-east-EW edge-west-EW"/>
    </vehicle>