<?xml version="1.0" encoding="UTF-8"?>

<!-- generated on Wed Dec  2 18:58:32 2020 by Eclipse SUMO duarouter Version 1.7.0
<configuration xmlns:xsi="http://www.w3.org/2001/XMLSchema-instance" xsi:noNamespaceSchemaLocation="http://sumo.dlr.de/xsd/duarouterConfiguration.xsd">

    <input>
        <net-file value="/home/automan/Project3/Human-like/scenarios/left_turn/map.net.xml"/>
        <route-files value="/tmp/tmph6_mluu6/trips.trips.xml"/>
    </input>

    <output>
        <output-file value="/home/automan/Project3/Human-like/scenarios/left_turn/traffic/horizontal_2.rou.xml"/>
        <alternatives-output value="/home/automan/Project3/Human-like/scenarios/left_turn/traffic/horizontal_2.rou.alt.xml"/>
    </output>

    <processing>
        <unsorted-input value="true"/>
        <repair value="true"/>
    </processing>

    <report>
        <error-log value="/tmp/smarts/_duarouter_routing/traffic/horizontal_2.log"/>
        <no-step-log value="true"/>
    </report>

    <random_number>
        <seed value="2"/>
    </random_number>

</configuration>
-->

<routes xmlns:xsi="http://www.w3.org/2001/XMLSchema-instance" xsi:noNamespaceSchemaLocation="http://sumo.dlr.de/xsd/routes_file.xsd">
    <vType id="actor-car--2875697313922783383" minGap="2.50" speedFactor="normc(0.50,0.10,0.20,2.00)" vClass="passenger" impatience="0.50" lcCooperative="0.5" lcImpatience="0.2" jmDriveAfterYellowTime="1.0" accel="2.6" decel="4.5" sigma="0.5"/>
    <vehicle id="car-flow-route-edge-east-EW_0_random-edge-west-EW_0_random--1114384631495577528--6219206397832067746--2-1.0" type="actor-car--2875697313922783383" depart="0.00" departLane="0" departPos="random" departSpeed="max" arrivalLane="0" arrivalPos="random">
        <route edges="edge-east-EW edge-west-EW"/>
    </vehicle>
    <vehicle id="car-flow-route-edge-east-EW_0_random-edge-west-EW_0_random--1114384631495577528--6219206397832067746--3-1.0" type="actor-car--2875697313922783383" depart="0.00" departLane="0" departPos="random" departSpeed="max" arrivalLane="0" arrivalPos="random">
        <route edges="edge-east-EW edge-west-EW"/>
    </vehicle>
    <vehicle id="car-flow-route-edge-east-EW_1_random-edge-west-EW_1_random-6808983489637281006--6219206397832067746--8-1.0" type="actor-car--2875697313922783383" depart="0.00" departLane="1" departPos="random" departSpeed="max" arrivalLane="1" arrivalPos="random">
        <route edges="edge-east-EW edge-west-EW"/>
    </vehicle>
    <vehicle id="car-flow-route-edge-east-EW_1_random-edge-west-EW_1_random-6808983489637281006--6219206397832067746--9-1.0" type="actor-car--2875697313922783383" depart="0.00" departLane="1" departPos="random" departSpeed="max" arrivalLane="1" arrivalPos="random">
        <route edges="edge-east-EW edge-west-EW"/>
    </vehicle>
    <vehicle id="car-flow-route-edge-south-SN_0_random-edge-east-WE_0_random-7211972442929207162--6219206397832067746--4-1.0" type="actor-car--2875697313922783383" depart="0.00" departLane="0" departPos="random" departSpeed="max" arrivalLane="0" arrivalPos="random">
        <route edges="edge-south-SN edge-east-WE"/>
    </vehicle>
    <vehicle id="car-flow-route-edge-south-SN_0_random-edge-east-WE_0_random-7211972442929207162--6219206397832067746--5-1.0" type="actor-car--2875697313922783383" depart="0.00" departLane="0" departPos="random" departSpeed="max" arrivalLane="0" arrivalPos="random">
        <route edges="edge-south-SN edge-east-WE"/>
    </vehicle>
    <vehicle id="car-flow-route-edge-west-WE_0_random-edge-east-WE_0_random-5261471215097453502--6219206397832067746--0-1.0" type="actor-car--2875697313922783383" depart="0.00" departLane="0" departPos="random" departSpeed="max" arrivalLane="0" arrivalPos="random">
        <route edges="edge-west-WE edge-east-WE"/>
    </vehicle>
    <vehicle id="car-flow-route-edge-west-WE_0_random-edge-east-WE_0_random-5261471215097453502--6219206397832067746--1-1.0" type="actor-car--2875697313922783383" depart="0.00" departLane="0" departPos="random" departSpeed="max" arrivalLane="0" arrivalPos="random">
        <route edges="edge-west-WE edge-east-WE"/>
    </vehicle>
    <vehicle id="car-flow-route-edge-west-WE_1_random-edge-east-WE_1_random-5472654657904153172--6219206397832067746--6-1.0" type="actor-car--2875697313922783383" depart="0.00" departLane="1" departPos="random" departSpeed="max" arrivalLane="1" arrivalPos="random">
        <route edges="edge-west-WE edge-east-WE"/>
    </vehicle>
    <vehicle id="car-flow-route-edge-west-WE_1_random-edge-east-WE_1_random-5472654657904153172--6219206397832067746--7-1.0" type="actor-car--2875697313922783383" depart="0.00" departLane="1" departPos="random" departSpeed="max" arrivalLane="1" arrivalPos="random">
        <route edges="edge-west-WE edge-east-WE"/>
    </vehicle>
    <vType id="actor-im_car--8730625819675767484" minGap="2.50" speedFactor="normc(0.50,0.10,0.20,2.00)" vClass="passenger" impatience="1.00" lcCooperative="0.25" lcImpatience="1" jmDriveAfterYellowTime="1.0" jmDriveAfterRedTime="1.5" accel="2.6" decel="4.5" sigma="0.5"/>
    <vehicle id="im_car-flow-route-edge-east-EW_0_random-edge-west-EW_0_random--1114384631495577528--6219206397832067746--2-0.0" type="actor-im_car--8730625819675767484" depart="0.00" departLane="0" departPos="random" departSpeed="max" arrivalLane="0" arrivalPos="random">
        <route edges="edge-east-EW edge-west-EW"/>
    </vehicle>
    <vehicle id="im_car-flow-route-edge-east-EW_0_random-edge-west-EW_0_random--1114384631495577528--6219206397832067746--3-0.0" type="actor-im_car--8730625819675767484" depart="0.00" departLane="0" departPos="random" departSpeed="max" arrivalLane="0" arrivalPos="random">
        <route edges="edge-east-EW edge-west-EW"/>
    </vehicle>
    <vehicle id="im_car-flow-route-edge-east-EW_1_random-edge-west-EW_1_random-6808983489637281006--6219206397832067746--8-0.0" type="actor-im_car--8730625819675767484" depart="0.00" departLane="1" departPos="random" departSpeed="max" arrivalLane="1" arrivalPos="random">
        <route edges="edge-east-EW edge-west-EW"/>
    </vehicle>
    <vehicle id="im_car-flow-route-edge-east-EW_1_random-edge-west-EW_1_random-6808983489637281006--6219206397832067746--9-0.0" type="actor-im_car--8730625819675767484" depart="0.00" departLane="1" departPos="random" departSpeed="max" arrivalLane="1" arrivalPos="random">
        <route edges="edge-east-EW edge-west-EW"/>
    </vehicle>
    <vehicle id="im_car-flow-route-edge-south-SN_0_random-edge-east-WE_0_random-7211972442929207162--6219206397832067746--4-0.0" type="actor-im_car--8730625819675767484" depart="0.00" departLane="0" departPos="random" departSpeed="max" arrivalLane="0" arrivalPos="random">
        <route edges="edge-south-SN edge-east-WE"/>
    </vehicle>
    <vehicle id="im_car-flow-route-edge-south-SN_0_random-edge-east-WE_0_random-7211972442929207162--6219206397832067746--5-0.0" type="actor-im_car--8730625819675767484" depart="0.00" departLane="0" departPos="random" departSpeed="max" arrivalLane="0" arrivalPos="random">
        <route edges="edge-south-SN edge-east-WE"/>
    </vehicle>
    <vehicle id="im_car-flow-route-edge-west-WE_0_random-edge-east-WE_0_random-5261471215097453502--6219206397832067746--0-0.0" type="actor-im_car--8730625819675767484" depart="0.00" departLane="0" departPos="random" departSpeed="max" arrivalLane="0" arrivalPos="random">
        <route edges="edge-west-WE edge-east-WE"/>
    </vehicle>
    <vehicle id="im_car-flow-route-edge-west-WE_0_random-edge-east-WE_0_random-5261471215097453502--6219206397832067746--1-0.0" type="actor-im_car--8730625819675767484" depart="0.00" departLane="0" departPos="random" departSpeed="max" arrivalLane="0" arrivalPos="random">
        <route edges="edge-west-WE edge-east-WE"/>
    </vehicle>
    <vehicle id="im_car-flow-route-edge-west-WE_1_random-edge-east-WE_1_random-5472654657904153172--6219206397832067746--6-0.0" type="actor-im_car--8730625819675767484" depart="0.00" departLane="1" departPos="random" departSpeed="max" arrivalLane="1" arrivalPos="random">
        <route edges="edge-west-WE edge-east-WE"/>
    </vehicle>
    <vehicle id="im_car-flow-route-edge-west-WE_1_random-edge-east-WE_1_random-5472654657904153172--6219206397832067746--7-0.0" type="actor-im_car--8730625819675767484" depart="0.00" departLane="1" departPos="random" departSpeed="max" arrivalLane="1" arrivalPos="random">
        <route edges="edge-west-WE edge-east-WE"/>
    </vehicle>
    <vehicle id="car-flow-route-edge-east-EW_0_random-edge-west-EW_0_random--1114384631495577528--6219206397832067746--2-1.1" type="actor-car--2875697313922783383" depart="720.00" departLane="0" departPos="random" departSpeed="max" arrivalLane="0" arrivalPos="random">
        <route edges="edge-east-EW edge-west-EW"/>
    </vehicle>
    <vehicle id="car-flow-route-edge-east-EW_0_random-edge-west-EW_0_random--1114384631495577528--6219206397832067746--3-1.1" type="actor-car--2875697313922783383" depart="720.00" departLane="0" departPos="random" departSpeed="max" arrivalLane="0" arrivalPos="random">
        <route edges="edge-east-EW edge-west-EW"/>
    </vehicle>
    <vehicle id="car-flow-route-edge-east-EW_1_random-edge-west-EW_1_random-6808983489637281006--6219206397832067746--8-1.1" type="actor-car--2875697313922783383" depart="720.00" departLane="1" departPos="random" departSpeed="max" arrivalLane="1" arrivalPos="random">
        <route edges="edge-east-EW edge-west-EW"/>
    </vehicle>
    <vehicle id="car-flow-route-edge-east-EW_1_random-edge-west-EW_1_random-6808983489637281006--6219206397832067746--9-1.1" type="actor-car--2875697313922783383" depart="720.00" departLane="1" departPos="random" departSpeed="max" arrivalLane="1" arrivalPos="random">
        <route edges="edge-east-EW edge-west-EW"/>
    </vehicle>
    <vehicle id="car-flow-route-edge-south-SN_0_random-edge-east-WE_0_random-7211972442929207162--6219206397832067746--4-1.1" type="actor-car--2875697313922783383" depart="720.00" departLane="0" departPos="random" departSpeed="max" arrivalLane="0" arrivalPos="random">
        <route edges="edge-south-SN edge-east-WE"/>
    </vehicle>
    <vehicle id="car-flow-route-edge-south-SN_0_random-edge-east-WE_0_random-7211972442929207162--6219206397832067746--5-1.1" type="actor-car--2875697313922783383" depart="720.00" departLane="0" departPos="random" departSpeed="max" arrivalLane="0" arrivalPos="random">
        <route edges="edge-south-SN edge-east-WE"/>
    </vehicle>
    <vehicle id="car-flow-route-edge-west-WE_0_random-edge-east-WE_0_random-5261471215097453502--6219206397832067746--0-1.1" type="actor-car--2875697313922783383" depart="720.00" departLane="0" departPos="random" departSpeed="max" arrivalLane="0" arrivalPos="random">
        <route edges="edge-west-WE edge-east-WE"/>
    </vehicle>
    <vehicle id="car-flow-route-edge-west-WE_0_random-edge-east-WE_0_random-5261471215097453502--6219206397832067746--1-1.1" type="actor-car--2875697313922783383" depart="720.00" departLane="0" departPos="random" departSpeed="max" arrivalLane="0" arrivalPos="random">
        <route edges="edge-west-WE edge-east-WE"/>
    </vehicle>
    <vehicle id="car-flow-route-edge-west-WE_1_random-edge-east-WE_1_random-5472654657904153172--6219206397832067746--6-1.1" type="actor-car--2875697313922783383" depart="720.00" departLane="1" departPos="random" departSpeed="max" arrivalLane="1" arrivalPos="random">
        <route edges="edge-west-WE edge-east-WE"/>
    </vehicle>
    <vehicle id="car-flow-route-edge-west-WE_1_random-edge-east-WE_1_random-5472654657904153172--6219206397832067746--7-1.1" type="actor-car--2875697313922783383" depart="720.00" departLane="1" departPos="random" departSpeed="max" arrivalLane="1" arrivalPos="random">
        <route edges="edge-west-WE edge-east-WE"/>
    </vehicle>
    <vehicle id="im_car-flow-route-edge-east-EW_0_random-edge-west-EW_0_random--1114384631495577528--6219206397832067746--2-0.1" type="actor-im_car--8730625819675767484" depart="720.00" departLane="0" departPos="random" departSpeed="max" arrivalLane="0" arrivalPos="random">
        <route edges="edge-east-EW edge-west-EW"/>
    </vehicle>
    <vehicle id="im_car-flow-route-edge-east-EW_0_random-edge-west-EW_0_random--1114384631495577528--6219206397832067746--3-0.1" type="actor-im_car--8730625819675767484" depart="720.00" departLane="0" departPos="random" departSpeed="max" arrivalLane="0" arrivalPos="random">
        <route edges="edge-east-EW edge-west-EW"/>
    </vehicle>
    <vehicle id="im_car-flow-route-edge-east-EW_1_random-edge-west-EW_1_random-6808983489637281006--6219206397832067746--8-0.1" type="actor-im_car--8730625819675767484" depart="720.00" departLane="1" departPos="random" departSpeed="max" arrivalLane="1" arrivalPos="random">
        <route edges="edge-east-EW edge-west-EW"/>
    </vehicle>
    <vehicle id="im_car-flow-route-edge-east-EW_1_random-edge-west-EW_1_random-6808983489637281006--6219206397832067746--9-0.1" type="actor-im_car--8730625819675767484" depart="720.00" departLane="1" departPos="random" departSpeed="max" arrivalLane="1" arrivalPos="random">
        <route edges="edge-east-EW edge-west-EW"/>
    </vehicle>
    <vehicle id="im_car-flow-route-edge-south-SN_0_random-edge-east-WE_0_random-7211972442929207162--6219206397832067746--4-0.1" type="actor-im_car--8730625819675767484" depart="720.00" departLane="0" departPos="random" departSpeed="max" arrivalLane="0" arrivalPos="random">
        <route edges="edge-south-SN edge-east-WE"/>
    </vehicle>
    <vehicle id="im_car-flow-route-edge-south-SN_0_random-edge-east-WE_0_random-7211972442929207162--6219206397832067746--5-0.1" type="actor-im_car--8730625819675767484" depart="720.00" departLane="0" departPos="random" departSpeed="max" arrivalLane="0" arrivalPos="random">
        <route edges="edge-south-SN edge-east-WE"/>
    </vehicle>
    <vehicle id="im_car-flow-route-edge-west-WE_0_random-edge-east-WE_0_random-5261471215097453502--6219206397832067746--0-0.1" type="actor-im_car--8730625819675767484" depart="720.00" departLane="0" departPos="random" departSpeed="max" arrivalLane="0" arrivalPos="random">
        <route edges="edge-west-WE edge-east-WE"/>
    </vehicle>
    <vehicle id="im_car-flow-route-edge-west-WE_0_random-edge-east-WE_0_random-5261471215097453502--6219206397832067746--1-0.1" type="actor-im_car--8730625819675767484" depart="720.00" departLane="0" departPos="random" departSpeed="max" arrivalLane="0" arrivalPos="random">
        <route edges="edge-west-WE edge-east-WE"/>
    </vehicle>
    <vehicle id="im_car-flow-route-edge-west-WE_1_random-edge-east-WE_1_random-5472654657904153172--6219206397832067746--6-0.1" type="actor-im_car--8730625819675767484" depart="720.00" departLane="1" departPos="random" departSpeed="max" arrivalLane="1" arrivalPos="random">
        <route edges="edge-west-WE edge-east-WE"/>
    </vehicle>
    <vehicle id="im_car-flow-route-edge-west-WE_1_random-edge-east-WE_1_random-5472654657904153172--6219206397832067746--7-0.1" type="actor-im_car--8730625819675767484" depart="720.00" departLane="1" departPos="random" departSpeed="max" arrivalLane="1" arrivalPos="random">
        <route edges="edge-west-WE edge-east-WE"/>
    </vehicle>
    <vehicle id="car-flow-route-edge-east-EW_0_random-edge-west-EW_0_random--1114384631495577528--6219206397832067746--2-1.2" type="actor-car--2875697313922783383" depart="1440.00" departLane="0" departPos="random" departSpeed="max" arrivalLane="0" arrivalPos="random">
        <route edges="edge-east-EW edge-west-EW"/>
    </vehicle>
    <vehicle id="car-flow-route-edge-east-EW_0_random-edge-west-EW_0_random--1114384631495577528--6219206397832067746--3-1.2" type="actor-car--2875697313922783383" depart="1440.00" departLane="0" departPos="random" departSpeed="max" arrivalLane="0" arrivalPos="random">
        <route edges="edge-east-EW edge-west-EW"/>
    </vehicle>
    <vehicle id="car-flow-route-edge-east-EW_1_random-edge-west-EW_1_random-6808983489637281006--6219206397832067746--8-1.2" type="actor-car--2875697313922783383" depart="1440.00" departLane="1" departPos="random" departSpeed="max" arrivalLane="1" arrivalPos="random">
        <route edges="edge-east-EW edge-west-EW"/>
    </vehicle>
    <vehicle id="car-flow-route-edge-east-EW_1_random-edge-west-EW_1_random-6808983489637281006--6219206397832067746--9-1.2" type="actor-car--2875697313922783383" depart="1440.00" departLane="1" departPos="random" departSpeed="max" arrivalLane="1" arrivalPos="random">
        <route edges="edge-east-EW edge-west-EW"/>
    </vehicle>
    <vehicle id="car-flow-route-edge-south-SN_0_random-edge-east-WE_0_random-7211972442929207162--6219206397832067746--4-1.2" type="actor-car--2875697313922783383" depart="1440.00" departLane="0" departPos="random" departSpeed="max" arrivalLane="0" arrivalPos="random">
        <route edges="edge-south-SN edge-east-WE"/>
    </vehicle>
    <vehicle id="car-flow-route-edge-south-SN_0_random-edge-east-WE_0_random-7211972442929207162--6219206397832067746--5-1.2" type="actor-car--2875697313922783383" depart="1440.00" departLane="0" departPos="random" departSpeed="max" arrivalLane="0" arrivalPos="random">
        <route edges="edge-south-SN edge-east-WE"/>
    </vehicle>
    <vehicle id="car-flow-route-edge-west-WE_0_random-edge-east-WE_0_random-5261471215097453502--6219206397832067746--0-1.2" type="actor-car--2875697313922783383" depart="1440.00" departLane="0" departPos="random" departSpeed="max" arrivalLane="0" arrivalPos="random">
        <route edges="edge-west-WE edge-east-WE"/>
    </vehicle>
    <vehicle id="car-flow-route-edge-west-WE_0_random-edge-east-WE_0_random-5261471215097453502--6219206397832067746--1-1.2" type="actor-car--2875697313922783383" depart="1440.00" departLane="0" departPos="random" departSpeed="max" arrivalLane="0" arrivalPos="random">
        <route edges="edge-west-WE edge-east-WE"/>
    </vehicle>
    <vehicle id="car-flow-route-edge-west-WE_1_random-edge-east-WE_1_random-5472654657904153172--6219206397832067746--6-1.2" type="actor-car--2875697313922783383" depart="1440.00" departLane="1" departPos="random" departSpeed="max" arrivalLane="1" arrivalPos="random">
        <route edges="edge-west-WE edge-east-WE"/>
    </vehicle>
    <vehicle id="car-flow-route-edge-west-WE_1_random-edge-east-WE_1_random-5472654657904153172--6219206397832067746--7-1.2" type="actor-car--2875697313922783383" depart="1440.00" departLane="1" departPos="random" departSpeed="max" arrivalLane="1" arrivalPos="random">
        <route edges="edge-west-WE edge-east-WE"/>
    </vehicle>
    <vehicle id="im_car-flow-route-edge-east-EW_0_random-edge-west-EW_0_random--1114384631495577528--6219206397832067746--2-0.2" type="actor-im_car--8730625819675767484" depart="1440.00" departLane="0" departPos="random" departSpeed="max" arrivalLane="0" arrivalPos="random">
        <route edges="edge-east-EW edge-west-EW"/>
    </vehicle>
    <vehicle id="im_car-flow-route-edge-east-EW_0_random-edge-west-EW_0_random--1114384631495577528--6219206397832067746--3-0.2" type="actor-im_car--8730625819675767484" depart="1440.00" departLane="0" departPos="random" departSpeed="max" arrivalLane="0" arrivalPos="random">
        <route edges="edge-east-EW edge-west-EW"/>
    </vehicle>
    <vehicle id="im_car-flow-route-edge-east-EW_1_random-edge-west-EW_1_random-6808983489637281006--6219206397832067746--8-0.2" type="actor-im_car--8730625819675767484" depart="1440.00" departLane="1" departPos="random" departSpeed="max" arrivalLane="1" arrivalPos="random">
        <route edges="edge-east-EW edge-west-EW"/>
    </vehicle>
    <vehicle id="im_car-flow-route-edge-east-EW_1_random-edge-west-EW_1_random-6808983489637281006--6219206397832067746--9-0.2" type="actor-im_car--8730625819675767484" depart="1440.00" departLane="1" departPos="random" departSpeed="max" arrivalLane="1" arrivalPos="random">
        <route edges="edge-east-EW edge-west-EW"/>
    </vehicle>
    <vehicle id="im_car-flow-route-edge-south-SN_0_random-edge-east-WE_0_random-7211972442929207162--6219206397832067746--4-0.2" type="actor-im_car--8730625819675767484" depart="1440.00" departLane="0" departPos="random" departSpeed="max" arrivalLane="0" arrivalPos="random">
        <route edges="edge-south-SN edge-east-WE"/>
    </vehicle>
    <vehicle id="im_car-flow-route-edge-south-SN_0_random-edge-east-WE_0_random-7211972442929207162--6219206397832067746--5-0.2" type="actor-im_car--8730625819675767484" depart="1440.00" departLane="0" departPos="random" departSpeed="max" arrivalLane="0" arrivalPos="random">
        <route edges="edge-south-SN edge-east-WE"/>
    </vehicle>
    <vehicle id="im_car-flow-route-edge-west-WE_0_random-edge-east-WE_0_random-5261471215097453502--6219206397832067746--0-0.2" type="actor-im_car--8730625819675767484" depart="1440.00" departLane="0" departPos="random" departSpeed="max" arrivalLane="0" arrivalPos="random">
        <route edges="edge-west-WE edge-east-WE"/>
    </vehicle>
    <vehicle id="im_car-flow-route-edge-west-WE_0_random-edge-east-WE_0_random-5261471215097453502--6219206397832067746--1-0.2" type="actor-im_car--8730625819675767484" depart="1440.00" departLane="0" departPos="random" departSpeed="max" arrivalLane="0" arrivalPos="random">
        <route edges="edge-west-WE edge-east-WE"/>
    </vehicle>
    <vehicle id="im_car-flow-route-edge-west-WE_1_random-edge-east-WE_1_random-5472654657904153172--6219206397832067746--6-0.2" type="actor-im_car--8730625819675767484" depart="1440.00" departLane="1" departPos="random" departSpeed="max" arrivalLane="1" arrivalPos="random">
        <route edges="edge-west-WE edge-east-WE"/>
    </vehicle>
    <vehicle id="im_car-flow-route-edge-west-WE_1_random-edge-east-WE_1_random-5472654657904153172--6219206397832067746--7-0.2" type="actor-im_car--8730625819675767484" depart="1440.00" departLane="1" departPos="random" departSpeed="max" arrivalLane="1" arrivalPos="random">
        <route edges="edge-west-WE edge-east-WE"/>
    </vehicle>
    <vehicle id="car-flow-route-edge-east-EW_0_random-edge-west-EW_0_random--1114384631495577528--6219206397832067746--2-1.3" type="actor-car--2875697313922783383" depart="2160.00" departLane="0" departPos="random" departSpeed="max" arrivalLane="0" arrivalPos="random">
        <route edges="edge-east-EW edge-west-EW"/>
    </vehicle>
    <vehicle id="car-flow-route-edge-east-EW_0_random-edge-west-EW_0_random--1114384631495577528--6219206397832067746--3-1.3" type="actor-car--2875697313922783383" depart="2160.00" departLane="0" departPos="random" departSpeed="max" arrivalLane="0" arrivalPos="random">
        <route edges="edge-east-EW edge-west-EW"/>
    </vehicle>
    <vehicle id="car-flow-route-edge-east-EW_1_random-edge-west-EW_1_random-6808983489637281006--6219206397832067746--8-1.3" type="actor-car--2875697313922783383" depart="2160.00" departLane="1" departPos="random" departSpeed="max" arrivalLane="1" arrivalPos="random">
        <route edges="edge-east-EW edge-west-EW"/>
    </vehicle>
    <vehicle id="car-flow-route-edge-east-EW_1_random-edge-west-EW_1_random-6808983489637281006--6219206397832067746--9-1.3" type="actor-car--2875697313922783383" depart="2160.00" departLane="1" departPos="random" departSpeed="max" arrivalLane="1" arrivalPos="random">
        <route edges="edge-east-EW edge-west-EW"/>
    </vehicle>
    <vehicle id="car-flow-route-edge-south-SN_0_random-edge-east-WE_0_random-7211972442929207162--6219206397832067746--4-1.3" type="actor-car--2875697313922783383" depart="2160.00" departLane="0" departPos="random" departSpeed="max" arrivalLane="0" arrivalPos="random">
        <route edges="edge-south-SN edge-east-WE"/>
    </vehicle>
    <vehicle id="car-flow-route-edge-south-SN_0_random-edge-east-WE_0_random-7211972442929207162--6219206397832067746--5-1.3" type="actor-car--2875697313922783383" depart="2160.00" departLane="0" departPos="random" departSpeed="max" arrivalLane="0" arrivalPos="random">
        <route edges="edge-south-SN edge-east-WE"/>
    </vehicle>
    <vehicle id="car-flow-route-edge-west-WE_0_random-edge-east-WE_0_random-5261471215097453502--6219206397832067746--0-1.3" type="actor-car--2875697313922783383" depart="2160.00" departLane="0" departPos="random" departSpeed="max" arrivalLane="0" arrivalPos="random">
        <route edges="edge-west-WE edge-east-WE"/>
    </vehicle>
    <vehicle id="car-flow-route-edge-west-WE_0_random-edge-east-WE_0_random-5261471215097453502--6219206397832067746--1-1.3" type="actor-car--2875697313922783383" depart="2160.00" departLane="0" departPos="random" departSpeed="max" arrivalLane="0" arrivalPos="random">
        <route edges="edge-west-WE edge-east-WE"/>
    </vehicle>
    <vehicle id="car-flow-route-edge-west-WE_1_random-edge-east-WE_1_random-5472654657904153172--6219206397832067746--6-1.3" type="actor-car--2875697313922783383" depart="2160.00" departLane="1" departPos="random" departSpeed="max" arrivalLane="1" arrivalPos="random">
        <route edges="edge-west-WE edge-east-WE"/>
    </vehicle>
    <vehicle id="car-flow-route-edge-west-WE_1_random-edge-east-WE_1_random-5472654657904153172--6219206397832067746--7-1.3" type="actor-car--2875697313922783383" depart="2160.00" departLane="1" departPos="random" departSpeed="max" arrivalLane="1" arrivalPos="random">
        <route edges="edge-west-WE edge-east-WE"/>
    </vehicle>
    <vehicle id="im_car-flow-route-edge-east-EW_0_random-edge-west-EW_0_random--1114384631495577528--6219206397832067746--2-0.3" type="actor-im_car--8730625819675767484" depart="2160.00" departLane="0" departPos="random" departSpeed="max" arrivalLane="0" arrivalPos="random">
        <route edges="edge-east-EW edge-west-EW"/>
    </vehicle>
    <vehicle id="im_car-flow-route-edge-east-EW_0_random-edge-west-EW_0_random--1114384631495577528--6219206397832067746--3-0.3" type="actor-im_car--8730625819675767484" depart="2160.00" departLane="0" departPos="random" departSpeed="max" arrivalLane="0" arrivalPos="random">
        <route edges="edge-east-EW edge-west-EW"/>
    </vehicle>
    <vehicle id="im_car-flow-route-edge-east-EW_1_random-edge-west-EW_1_random-6808983489637281006--6219206397832067746--8-0.3" type="actor-im_car--8730625819675767484" depart="2160.00" departLane="1" departPos="random" departSpeed="max" arrivalLane="1" arrivalPos="random">
        <route edges="edge-east-EW edge-west-EW"/>
    </vehicle>
    <vehicle id="im_car-flow-route-edge-east-EW_1_random-edge-west-EW_1_random-6808983489637281006--6219206397832067746--9-0.3" type="actor-im_car--8730625819675767484" depart="2160.00" departLane="1" departPos="random" departSpeed="max" arrivalLane="1" arrivalPos="random">
        <route edges="edge-east-EW edge-west-EW"/>
    </vehicle>
    <vehicle id="im_car-flow-route-edge-south-SN_0_random-edge-east-WE_0_random-7211972442929207162--6219206397832067746--4-0.3" type="actor-im_car--8730625819675767484" depart="2160.00" departLane="0" departPos="random" departSpeed="max" arrivalLane="0" arrivalPos="random">
        <route edges="edge-south-SN edge-east-WE"/>
    </vehicle>
    <vehicle id="im_car-flow-route-edge-south-SN_0_random-edge-east-WE_0_random-7211972442929207162--6219206397832067746--5-0.3" type="actor-im_car--8730625819675767484" depart="2160.00" departLane="0" departPos="random" departSpeed="max" arrivalLane="0" arrivalPos="random">
        <route edges="edge-south-SN edge-east-WE"/>
    </vehicle>
    <vehicle id="im_car-flow-route-edge-west-WE_0_random-edge-east-WE_0_random-5261471215097453502--6219206397832067746--0-0.3" type="actor-im_car--8730625819675767484" depart="2160.00" departLane="0" departPos="random" departSpeed="max" arrivalLane="0" arrivalPos="random">
        <route edges="edge-west-WE edge-east-WE"/>
    </vehicle>
    <vehicle id="im_car-flow-route-edge-west-WE_0_random-edge-east-WE_0_random-5261471215097453502--6219206397832067746--1-0.3" type="actor-im_car--8730625819675767484" depart="2160.00" departLane="0" departPos="random" departSpeed="max" arrivalLane="0" arrivalPos="random">
        <route edges="edge-west-WE edge-east-WE"/>
    </vehicle>
    <vehicle id="im_car-flow-route-edge-west-WE_1_random-edge-east-WE_1_random-5472654657904153172--6219206397832067746--6-0.3" type="actor-im_car--8730625819675767484" depart="2160.00" departLane="1" departPos="random" departSpeed="max" arrivalLane="1" arrivalPos="random">
        <route edges="edge-west-WE edge-east-WE"/>
    </vehicle>
    <vehicle id="im_car-flow-route-edge-west-WE_1_random-edge-east-WE_1_random-5472654657904153172--6219206397832067746--7-0.3" type="actor-im_car--8730625819675767484" depart="2160.00" departLane="1" departPos="random" departSpeed="max" arrivalLane="1" arrivalPos="random">
        <route edges="edge-west-WE edge-east-WE"/>
    </vehicle>
    <vehicle id="car-flow-route-edge-east-EW_0_random-edge-west-EW_0_random--1114384631495577528--6219206397832067746--2-1.4" type="actor-car--2875697313922783383" depart="2880.00" departLane="0" departPos="random" departSpeed="max" arrivalLane="0" arrivalPos="random">
        <route edges="edge-east-EW edge-west-EW"/>
    </vehicle>
    <vehicle id="car-flow-route-edge-east-EW_0_random-edge-west-EW_0_random--1114384631495577528--6219206397832067746--3-1.4" type="actor-car--2875697313922783383" depart="2880.00" departLane="0" departPos="random" departSpeed="max" arrivalLane="0" arrivalPos="random">
        <route edges="edge-east-EW edge-west-EW"/>
    </vehicle>
    <vehicle id="car-flow-route-edge-east-EW_1_random-edge-west-EW_1_random-6808983489637281006--6219206397832067746--8-1.4" type="actor-car--2875697313922783383" depart="2880.00" departLane="1" departPos="random" departSpeed="max" arrivalLane="1" arrivalPos="random">
        <route edges="edge-east-EW edge-west-EW"/>
    </vehicle>