<?xml version="1.0" encoding="UTF-8"?>

<!-- generated on 2021-08-18 16:13:32 by Eclipse SUMO duarouter Version 1.10.0
<configuration xmlns:xsi="http://www.w3.org/2001/XMLSchema-instance" xsi:noNamespaceSchemaLocation="http://sumo.dlr.de/xsd/duarouterConfiguration.xsd">

    <input>
        <net-file value="/home/haochen/SMARTS/scenarios/intersections/roundabout/map.net.xml"/>
        <route-files value="/tmp/tmplf5gajad/trips.trips.xml"/>
    </input>

    <output>
        <output-file value="/home/haochen/SMARTS/scenarios/intersections/roundabout/traffic/all_routes_27.rou.xml"/>
        <alternatives-output value="/home/haochen/SMARTS/scenarios/intersections/roundabout/traffic/all_routes_27.rou.alt.xml"/>
    </output>

    <processing>
        <unsorted-input value="true"/>
        <repair value="true"/>
    </processing>

    <report>
        <error-log value="/home/haochen/.smarts/_duarouter_routing/traffic/all_routes_27.log"/>
        <no-step-log value="true"/>
    </report>

    <random_number>
        <seed value="27"/>
    </random_number>

</configuration>
-->

<routes xmlns:xsi="http://www.w3.org/2001/XMLSchema-instance" xsi:noNamespaceSchemaLocation="http://sumo.dlr.de/xsd/routes_file.xsd">
    <vType id="actor-aggressive_car-8180195591211487284" minGap="2.50" maxSpeed="55.50" speedFactor="normc(0.80,0.20,0.20,2.00)" vClass="passenger" impatience="1.00" lcCooperative="0.25" lcImpatience="1" jmDriveAfterYellowTime="1.0" accel="2.6" decel="4.5" sigma="0.5"/>
    <vehicle id="aggressive_car-flow-route-edge-north-NS_0_random-edge-east-WE_0_max--7795983984690626330---3970526675561110198--50-0.0" type="actor-aggressive_car-8180195591211487284" depart="0.00" departLane="0" departPos="random" departSpeed="max" arrivalLane="0" arrivalPos="max">
        <route edges="edge-north-NS edge-east-NE edge-east-WE"/>
    </vehicle>
    <vehicle id="aggressive_car-flow-route-edge-north-NS_0_random-edge-east-WE_0_max--7795983984690626330---3970526675561110198--51-0.0" type="actor-aggressive_car-8180195591211487284" depart="0.00" departLane="0" departPos="random" departSpeed="max" arrivalLane="0" arrivalPos="max">
        <route edges="edge-north-NS edge-east-NE edge-east-WE"/>
    </vehicle>
    <vehicle id="aggressive_car-flow-route-edge-north-NS_0_random-edge-east-WE_0_max--7795983984690626330---3970526675561110198--52-0.0" type="actor-aggressive_car-8180195591211487284" depart="0.00" departLane="0" departPos="random" departSpeed="max" arrivalLane="0" arrivalPos="max">
        <route edges="edge-north-NS edge-east-NE edge-east-WE"/>
    </vehicle>
    <vehicle id="aggressive_car-flow-route-edge-north-NS_0_random-edge-east-WE_0_max--7795983984690626330---3970526675561110198--53-0.0" type="actor-aggressive_car-8180195591211487284" depart="0.00" departLane="0" departPos="random" departSpeed="max" arrivalLane="0" arrivalPos="max">
        <route edges="edge-north-NS edge-east-NE edge-east-WE"/>
    </vehicle>
    <vehicle id="aggressive_car-flow-route-edge-north-NS_0_random-edge-east-WE_0_max--7795983984690626330---3970526675561110198--54-0.0" type="actor-aggressive_car-8180195591211487284" depart="0.00" departLane="0" departPos="random" departSpeed="max" arrivalLane="0" arrivalPos="max">
        <route edges="edge-north-NS edge-east-NE edge-east-WE"/>
    </vehicle>
    <vehicle id="aggressive_car-flow-route-edge-north-NS_0_random-edge-east-WE_0_max--7795983984690626330---3970526675561110198--55-0.0" type="actor-aggressive_car-8180195591211487284" depart="0.00" departLane="0" departPos="random" departSpeed="max" arrivalLane="0" arrivalPos="max">
        <route edges="edge-north-NS edge-east-NE edge-east-WE"/>
    </vehicle>
    <vehicle id="aggressive_car-flow-route-edge-north-NS_0_random-edge-east-WE_0_max--7795983984690626330---3970526675561110198--56-0.0" type="actor-aggressive_car-8180195591211487284" depart="0.00" departLane="0" departPos="random" departSpeed="max" arrivalLane="0" arrivalPos="max">
        <route edges="edge-north-NS edge-east-NE edge-east-WE"/>
    </vehicle>
    <vehicle id="aggressive_car-flow-route-edge-north-NS_0_random-edge-east-WE_0_max--7795983984690626330---3970526675561110198--57-0.0" type="actor-aggressive_car-8180195591211487284" depart="0.00" departLane="0" departPos="random" departSpeed="max" arrivalLane="0" arrivalPos="max">
        <route edges="edge-north-NS edge-east-NE edge-east-WE"/>
    </vehicle>
    <vehicle id="aggressive_car-flow-route-edge-north-NS_0_random-edge-east-WE_0_max--7795983984690626330---3970526675561110198--58-0.0" type="actor-aggressive_car-8180195591211487284" depart="0.00" departLane="0" departPos="random" departSpeed="max" arrivalLane="0" arrivalPos="max">
        <route edges="edge-north-NS edge-east-NE edge-east-WE"/>
    </vehicle>
    <vehicle id="aggressive_car-flow-route-edge-north-NS_0_random-edge-east-WE_0_max--7795983984690626330---3970526675561110198--59-0.0" type="actor-aggressive_car-8180195591211487284" depart="0.00" departLane="0" departPos="random" departSpeed="max" arrivalLane="0" arrivalPos="max">
        <route edges="edge-north-NS edge-east-NE edge-east-WE"/>
    </vehicle>
    <vehicle id="aggressive_car-flow-route-edge-north-NS_0_random-edge-north-SN_0_max--5994278202006115405---3970526675561110198--100-0.0" type="actor-aggressive_car-8180195591211487284" depart="0.00" departLane="0" departPos="random" departSpeed="max" arrivalLane="0" arrivalPos="max">
        <route edges="edge-north-NS edge-north-NW edge-west-WS edge-south-SE edge-east-EN edge-north-SN"/>
    </vehicle>
    <vehicle id="aggressive_car-flow-route-edge-north-NS_0_random-edge-north-SN_0_max--5994278202006115405---3970526675561110198--101-0.0" type="actor-aggressive_car-8180195591211487284" depart="0.00" departLane="0" departPos="random" departSpeed="max" arrivalLane="0" arrivalPos="max">
        <route edges="edge-north-NS edge-north-NW edge-west-WS edge-south-SE edge-east-EN edge-north-SN"/>
    </vehicle>
    <vehicle id="aggressive_car-flow-route-edge-north-NS_0_random-edge-north-SN_0_max--5994278202006115405---3970526675561110198--102-0.0" type="actor-aggressive_car-8180195591211487284" depart="0.00" departLane="0" departPos="random" departSpeed="max" arrivalLane="0" arrivalPos="max">
        <route edges="edge-north-NS edge-north-NW edge-west-WS edge-south-SE edge-east-EN edge-north-SN"/>
    </vehicle>
    <vehicle id="aggressive_car-flow-route-edge-north-NS_0_random-edge-north-SN_0_max--5994278202006115405---3970526675561110198--103-0.0" type="actor-aggressive_car-8180195591211487284" depart="0.00" departLane="0" departPos="random" departSpeed="max" arrivalLane="0" arrivalPos="max">
        <route edges="edge-north-NS edge-north-NW edge-west-WS edge-south-SE edge-east-EN edge-north-SN"/>
    </vehicle>
    <vehicle id="aggressive_car-flow-route-edge-north-NS_0_random-edge-north-SN_0_max--5994278202006115405---3970526675561110198--104-0.0" type="actor-aggressive_car-8180195591211487284" depart="0.00" departLane="0" departPos="random" departSpeed="max" arrivalLane="0" arrivalPos="max">
        <route edges="edge-north-NS edge-north-NW edge-west-WS edge-south-SE edge-east-EN edge-north-SN"/>
    </vehicle>
    <vehicle id="aggressive_car-flow-route-edge-north-NS_0_random-edge-north-SN_0_max--5994278202006115405---3970526675561110198--105-0.0" type="actor-aggressive_car-8180195591211487284" depart="0.00" departLane="0" departPos="random" departSpeed="max" arrivalLane="0" arrivalPos="max">
        <route edges="edge-north-NS edge-north-NW edge-west-WS edge-south-SE edge-east-EN edge-north-SN"/>
    </vehicle>
    <vehicle id="aggressive_car-flow-route-edge-north-NS_0_random-edge-north-SN_0_max--5994278202006115405---3970526675561110198--106-0.0" type="actor-aggressive_car-8180195591211487284" depart="0.00" departLane="0" departPos="random" departSpeed="max" arrivalLane="0" arrivalPos="max">
        <route edges="edge-north-NS edge-north-NW edge-west-WS edge-south-SE edge-east-EN edge-north-SN"/>
    </vehicle>
    <vehicle id="aggressive_car-flow-route-edge-north-NS_0_random-edge-north-SN_0_max--5994278202006115405---3970526675561110198--107-0.0" type="actor-aggressive_car-8180195591211487284" depart="0.00" departLane="0" departPos="random" departSpeed="max" arrivalLane="0" arrivalPos="max">
        <route edges="edge-north-NS edge-north-NW edge-west-WS edge-south-SE edge-east-EN edge-north-SN"/>
    </vehicle>
    <vehicle id="aggressive_car-flow-route-edge-north-NS_0_random-edge-north-SN_0_max--5994278202006115405---3970526675561110198--108-0.0" type="actor-aggressive_car-8180195591211487284" depart="0.00" departLane="0" departPos="random" departSpeed="max" arrivalLane="0" arrivalPos="max">
        <route edges="edge-north-NS edge-north-NW edge-west-WS edge-south-SE edge-east-EN edge-north-SN"/>
    </vehicle>
    <vehicle id="aggressive_car-flow-route-edge-north-NS_0_random-edge-north-SN_0_max--5994278202006115405---3970526675561110198--109-0.0" type="actor-aggressive_car-8180195591211487284" depart="0.00" departLane="0" departPos="random" departSpeed="max" arrivalLane="0" arrivalPos="max">
        <route edges="edge-north-NS edge-north-NW edge-west-WS edge-south-SE edge-east-EN edge-north-SN"/>
    </vehicle>
    <vehicle id="aggressive_car-flow-route-edge-north-NS_0_random-edge-south-NS_0_max-3939645449129875355---3970526675561110198--0-0.0" type="actor-aggressive_car-8180195591211487284" depart="0.00" departLane="0" departPos="random" departSpeed="max" arrivalLane="0" arrivalPos="max">
        <route edges="edge-north-NS edge-north-NW edge-west-WS edge-south-NS"/>
    </vehicle>
    <vehicle id="aggressive_car-flow-route-edge-north-NS_0_random-edge-south-NS_0_max-3939645449129875355---3970526675561110198--1-0.0" type="actor-aggressive_car-8180195591211487284" depart="0.00" departLane="0" departPos="random" departSpeed="max" arrivalLane="0" arrivalPos="max">
        <route edges="edge-north-NS edge-north-NW edge-west-WS edge-south-NS"/>
    </vehicle>
    <vehicle id="aggressive_car-flow-route-edge-north-NS_0_random-edge-south-NS_0_max-3939645449129875355---3970526675561110198--2-0.0" type="actor-aggressive_car-8180195591211487284" depart="0.00" departLane="0" departPos="random" departSpeed="max" arrivalLane="0" arrivalPos="max">
        <route edges="edge-north-NS edge-north-NW edge-west-WS edge-south-NS"/>
    </vehicle>
    <vehicle id="aggressive_car-flow-route-edge-north-NS_0_random-edge-south-NS_0_max-3939645449129875355---3970526675561110198--3-0.0" type="actor-aggressive_car-8180195591211487284" depart="0.00" departLane="0" departPos="random" departSpeed="max" arrivalLane="0" arrivalPos="max">
        <route edges="edge-north-NS edge-north-NW edge-west-WS edge-south-NS"/>
    </vehicle>
    <vehicle id="aggressive_car-flow-route-edge-north-NS_0_random-edge-south-NS_0_max-3939645449129875355---3970526675561110198--4-0.0" type="actor-aggressive_car-8180195591211487284" depart="0.00" departLane="0" departPos="random" departSpeed="max" arrivalLane="0" arrivalPos="max">
        <route edges="edge-north-NS edge-north-NW edge-west-WS edge-south-NS"/>
    </vehicle>
    <vehicle id="aggressive_car-flow-route-edge-north-NS_0_random-edge-south-NS_0_max-3939645449129875355---3970526675561110198--5-0.0" type="actor-aggressive_car-8180195591211487284" depart="0.00" departLane="0" departPos="random" departSpeed="max" arrivalLane="0" arrivalPos="max">
        <route edges="edge-north-NS edge-north-NW edge-west-WS edge-south-NS"/>
    </vehicle>
    <vehicle id="aggressive_car-flow-route-edge-north-NS_0_random-edge-south-NS_0_max-3939645449129875355---3970526675561110198--6-0.0" type="actor-aggressive_car-8180195591211487284" depart="0.00" departLane="0" departPos="random" departSpeed="max" arrivalLane="0" arrivalPos="max">
        <route edges="edge-north-NS edge-north-NW edge-west-WS edge-south-NS"/>
    </vehicle>
    <vehicle id="aggressive_car-flow-route-edge-north-NS_0_random-edge-south-NS_0_max-3939645449129875355---3970526675561110198--7-0.0" type="actor-aggressive_car-8180195591211487284" depart="0.00" departLane="0" departPos="random" departSpeed="max" arrivalLane="0" arrivalPos="max">
        <route edges="edge-north-NS edge-north-NW edge-west-WS edge-south-NS"/>
    </vehicle>
    <vehicle id="aggressive_car-flow-route-edge-north-NS_0_random-edge-south-NS_0_max-3939645449129875355---3970526675561110198--8-0.0" type="actor-aggressive_car-8180195591211487284" depart="0.00" departLane="0" departPos="random" departSpeed="max" arrivalLane="0" arrivalPos="max">
        <route edges="edge-north-NS edge-north-NW edge-west-WS edge-south-NS"/>
    </vehicle>
    <vehicle id="aggressive_car-flow-route-edge-north-NS_0_random-edge-south-NS_0_max-3939645449129875355---3970526675561110198--9-0.0" type="actor-aggressive_car-8180195591211487284" depart="0.00" departLane="0" departPos="random" departSpeed="max" arrivalLane="0" arrivalPos="max">
        <route edges="edge-north-NS edge-north-NW edge-west-WS edge-south-NS"/>
    </vehicle>
    <vehicle id="aggressive_car-flow-route-edge-north-NS_0_random-edge-west-EW_0_max--5950471824819723012---3970526675561110198--80-0.0" type="actor-aggressive_car-8180195591211487284" depart="0.00" departLane="0" departPos="random" departSpeed="max" arrivalLane="0" arrivalPos="max">
        <route edges="edge-north-NS edge-north-NW edge-west-EW"/>
    </vehicle>
    <vehicle id="aggressive_car-flow-route-edge-north-NS_0_random-edge-west-EW_0_max--5950471824819723012---3970526675561110198--81-0.0" type="actor-aggressive_car-8180195591211487284" depart="0.00" departLane="0" departPos="random" departSpeed="max" arrivalLane="0" arrivalPos="max">
        <route edges="edge-north-NS edge-north-NW edge-west-EW"/>
    </vehicle>
    <vehicle id="aggressive_car-flow-route-edge-north-NS_0_random-edge-west-EW_0_max--5950471824819723012---3970526675561110198--82-0.0" type="actor-aggressive_car-8180195591211487284" depart="0.00" departLane="0" departPos="random" departSpeed="max" arrivalLane="0" arrivalPos="max">
        <route edges="edge-north-NS edge-north-NW edge-west-EW"/>
    </vehicle>
    <vehicle id="aggressive_car-flow-route-edge-north-NS_0_random-edge-west-EW_0_max--5950471824819723012---3970526675561110198--83-0.0" type="actor-aggressive_car-8180195591211487284" depart="0.00" departLane="0" departPos="random" departSpeed="max" arrivalLane="0" arrivalPos="max">
        <route edges="edge-north-NS edge-north-NW edge-west-EW"/>
    </vehicle>
    <vehicle id="aggressive_car-flow-route-edge-north-NS_0_random-edge-west-EW_0_max--5950471824819723012---3970526675561110198--84-0.0" type="actor-aggressive_car-8180195591211487284" depart="0.00" departLane="0" departPos="random" departSpeed="max" arrivalLane="0" arrivalPos="max">
        <route edges="edge-north-NS edge-north-NW edge-west-EW"/>
    </vehicle>
    <vehicle id="aggressive_car-flow-route-edge-north-NS_0_random-edge-west-EW_0_max--5950471824819723012---3970526675561110198--85-0.0" type="actor-aggressive_car-8180195591211487284" depart="0.00" departLane="0" departPos="random" departSpeed="max" arrivalLane="0" arrivalPos="max">
        <route edges="edge-north-NS edge-north-NW edge-west-EW"/>
    </vehicle>
    <vehicle id="aggressive_car-flow-route-edge-north-NS_0_random-edge-west-EW_0_max--5950471824819723012---3970526675561110198--86-0.0" type="actor-aggressive_car-8180195591211487284" depart="0.00" departLane="0" departPos="random" departSpeed="max" arrivalLane="0" arrivalPos="max">
        <route edges="edge-north-NS edge-north-NW edge-west-EW"/>
    </vehicle>
    <vehicle id="aggressive_car-flow-route-edge-north-NS_0_random-edge-west-EW_0_max--5950471824819723012---3970526675561110198--87-0.0" type="actor-aggressive_car-8180195591211487284" depart="0.00" departLane="0" departPos="random" departSpeed="max" arrivalLane="0" arrivalPos="max">
        <route edges="edge-north-NS edge-north-NW edge-west-EW"/>
    </vehicle>
    <vehicle id="aggressive_car-flow-route-edge-north-NS_0_random-edge-west-EW_0_max--5950471824819723012---3970526675561110198--88-0.0" type="actor-aggressive_car-8180195591211487284" depart="0.00" departLane="0" departPos="random" departSpeed="max" arrivalLane="0" arrivalPos="max">
        <route edges="edge-north-NS edge-north-NW edge-west-EW"/>
    </vehicle>
    <vehicle id="aggressive_car-flow-route-edge-north-NS_0_random-edge-west-EW_0_max--5950471824819723012---3970526675561110198--89-0.0" type="actor-aggressive_car-8180195591211487284" depart="0.00" departLane="0" departPos="random" departSpeed="max" arrivalLane="0" arrivalPos="max">
        <route edges="edge-north-NS edge-north-NW edge-west-EW"/>
    </vehicle>
    <vehicle id="aggressive_car-flow-route-edge-south-SN_0_random-edge-east-WE_0_max-8647650891509068419---3970526675561110198--60-0.0" type="actor-aggressive_car-8180195591211487284" depart="0.00" departLane="0" departPos="random" departSpeed="max" arrivalLane="0" arrivalPos="max">
        <route edges="edge-south-SN edge-south-SE edge-east-WE"/>
    </vehicle>
    <vehicle id="aggressive_car-flow-route-edge-south-SN_0_random-edge-east-WE_0_max-8647650891509068419---3970526675561110198--61-0.0" type="actor-aggressive_car-8180195591211487284" depart="0.00" departLane="0" departPos="random" departSpeed="max" arrivalLane="0" arrivalPos="max">
        <route edges="edge-south-SN edge-south-SE edge-east-WE"/>
    </vehicle>
    <vehicle id="aggressive_car-flow-route-edge-south-SN_0_random-edge-east-WE_0_max-8647650891509068419---3970526675561110198--62-0.0" type="actor-aggressive_car-8180195591211487284" depart="0.00" departLane="0" departPos="random" departSpeed="max" arrivalLane="0" arrivalPos="max">
        <route edges="edge-south-SN edge-south-SE edge-east-WE"/>
    </vehicle>
    <vehicle id="aggressive_car-flow-route-edge-south-SN_0_random-edge-east-WE_0_max-8647650891509068419---3970526675561110198--63-0.0" type="actor-aggressive_car-8180195591211487284" depart="0.00" departLane="0" departPos="random" departSpeed="max" arrivalLane="0" arrivalPos="max">
        <route edges="edge-south-SN edge-south-SE edge-east-WE"/>
    </vehicle>
    <vehicle id="aggressive_car-flow-route-edge-south-SN_0_random-edge-east-WE_0_max-8647650891509068419---3970526675561110198--64-0.0" type="actor-aggressive_car-8180195591211487284" depart="0.00" departLane="0" departPos="random" departSpeed="max" arrivalLane="0" arrivalPos="max">
        <route edges="edge-south-SN edge-south-SE edge-east-WE"/>
    </vehicle>
    <vehicle id="aggressive_car-flow-route-edge-south-SN_0_random-edge-east-WE_0_max-8647650891509068419---3970526675561110198--65-0.0" type="actor-aggressive_car-8180195591211487284" depart="0.00" departLane="0" departPos="random" departSpeed="max" arrivalLane="0" arrivalPos="max">
        <route edges="edge-south-SN edge-south-SE edge-east-WE"/>
    </vehicle>
    <vehicle id="aggressive_car-flow-route-edge-south-SN_0_random-edge-east-WE_0_max-8647650891509068419---3970526675561110198--66-0.0" type="actor-aggressive_car-8180195591211487284" depart="0.00" departLane="0" departPos="random" departSpeed="max" arrivalLane="0" arrivalPos="max">
        <route edges="edge-south-SN edge-south-SE edge-east-WE"/>
    </vehicle>
    <vehicle id="aggressive_car-flow-route-edge-south-SN_0_random-edge-east-WE_0_max-8647650891509068419---3970526675561110198--67-0.0" type="actor-aggressive_car-8180195591211487284" depart="0.00" departLane="0" departPos="random" departSpeed="max" arrivalLane="0" arrivalPos="max">
        <route edges="edge-south-SN edge-south-SE edge-east-WE"/>
    </vehicle>
    <vehicle id="aggressive_car-flow-route-edge-south-SN_0_random-edge-east-WE_0_max-8647650891509068419---3970526675561110198--68-0.0" type="actor-aggressive_car-8180195591211487284" depart="0.00" departLane="0" departPos="random" departSpeed="max" arrivalLane="0" arrivalPos="max">
        <route edges="edge-south-SN edge-south-SE edge-east-WE"/>
    </vehicle>
    <vehicle id="aggressive_car-flow-route-edge-south-SN_0_random-edge-east-WE_0_max-8647650891509068419---3970526675561110198--69-0.0" type="actor-aggressive_car-8180195591211487284" depart="0.00" departLane="0" departPos="random" departSpeed="max" arrivalLane="0" arrivalPos="max">
        <route edges="edge-south-SN edge-south-SE edge-east-WE"/>
    </vehicle>
    <vehicle id="aggressive_car-flow-route-edge-south-SN_0_random-edge-north-SN_0_max--3599030016531604144---3970526675561110198--10-0.0" type="actor-aggressive_car-8180195591211487284" depart="0.00" departLane="0" departPos="random" departSpeed="max" arrivalLane="0" arrivalPos="max">
        <route edges="edge-south-SN edge-south-SE edge-east-EN edge-north-SN"/>
    </vehicle>
    <vehicle id="aggressive_car-flow-route-edge-south-SN_0_random-edge-north-SN_0_max--3599030016531604144---3970526675561110198--11-0.0" type="actor-aggressive_car-8180195591211487284" depart="0.00" departLane="0" departPos="random" departSpeed="max" arrivalLane="0" arrivalPos="max">
        <route edges="edge-south-SN edge-south-SE edge-east-EN edge-north-SN"/>
    </vehicle>
    <vehicle id="aggressive_car-flow-route-edge-south-SN_0_random-edge-north-SN_0_max--3599030016531604144---3970526675561110198--12-0.0" type="actor-aggressive_car-8180195591211487284" depart="0.00" departLane="0" departPos="random" departSpeed="max" arrivalLane="0" arrivalPos="max">
        <route edges="edge-south-SN edge-south-SE edge-east-EN edge-north-SN"/>
    </vehicle>
    <vehicle id="aggressive_car-flow-route-edge-south-SN_0_random-edge-north-SN_0_max--3599030016531604144---3970526675561110198--13-0.0" type="actor-aggressive_car-8180195591211487284" depart="0.00" departLane="0" departPos="random" departSpeed="max" arrivalLane="0" arrivalPos="max">
        <route edges="edge-south-SN edge-south-SE edge-east-EN edge-north-SN"/>
    </vehicle>
    <vehicle id="aggressive_car-flow-route-edge-south-SN_0_random-edge-north-SN_0_max--3599030016531604144---3970526675561110198--14-0.0" type="actor-aggressive_car-8180195591211487284" depart="0.00" departLane="0" departPos="random" departSpeed="max" arrivalLane="0" arrivalPos="max">
        <route edges="edge-south-SN edge-south-SE edge-east-EN edge-north-SN"/>
    </vehicle>
    <vehicle id="aggressive_car-flow-route-edge-south-SN_0_random-edge-north-SN_0_max--3599030016531604144---3970526675561110198--15-0.0" type="actor-aggressive_car-8180195591211487284" depart="0.00" departLane="0" departPos="random" departSpeed="max" arrivalLane="0" arrivalPos="max">
        <route edges="edge-south-SN edge-south-SE edge-east-EN edge-north-SN"/>
    </vehicle>
    <vehicle id="aggressive_car-flow-route-edge-south-SN_0_random-edge-north-SN_0_max--3599030016531604144---3970526675561110198--16-0.0" type="actor-aggressive_car-8180195591211487284" depart="0.00" departLane="0" departPos="random" departSpeed="max" arrivalLane="0" arrivalPos="max">
        <route edges="edge-south-SN edge-south-SE edge-east-EN edge-north-SN"/>
    </vehicle>
    <vehicle id="aggressive_car-flow-route-edge-south-SN_0_random-edge-north-SN_0_max--3599030016531604144---3970526675561110198--17-0.0" type="actor-aggressive_car-8180195591211487284" depart="0.00" departLane="0" departPos="random" departSpeed="max" arrivalLane="0" arrivalPos="max">
        <route edges="edge-south-SN edge-south-SE edge-east-EN edge-north-SN"/>
    </vehicle>
    <vehicle id="aggressive_car-flow-route-edge-south-SN_0_random-edge-north-SN_0_max--3599030016531604144---3970526675561110198--18-0.0" type="actor-aggressive_car-8180195591211487284" depart="0.00" departLane="0" departPos="random" departSpeed="max" arrivalLane="0" arrivalPos="max">
        <route edges="edge-south-SN edge-south-SE edge-east-EN edge-north-SN"/>
    </vehicle>
    <vehicle id="aggressive_car-flow-route-edge-south-SN_0_random-edge-north-SN_0_max--3599030016531604144---3970526675561110198--19-0.0" type="actor-aggressive_car-8180195591211487284" depart="0.00" departLane="0" departPos="random" departSpeed="max" arrivalLane="0" arrivalPos="max">
        <route edges="edge-south-SN edge-south-SE edge-east-EN edge-north-SN"/>
    </vehicle>
    <vehicle id="aggressive_car-flow-route-edge-south-SN_0_random-edge-south-NS_0_max-1936536251620018488---3970526675561110198--90-0.0" type="actor-aggressive_car-8180195591211487284" depart="0.00" departLane="0" departPos="random" departSpeed="max" arrivalLane="0" arrivalPos="max">
        <route edges="edge-south-SN edge-south-SE edge-east-EN edge-north-NW edge-west-WS edge-south-NS"/>
    </vehicle>
    <vehicle id="aggressive_car-flow-route-edge-south-SN_0_random-edge-south-NS_0_max-1936536251620018488---3970526675561110198--91-0.0" type="actor-aggressive_car-8180195591211487284" depart="0.00" departLane="0" departPos="random" departSpeed="max" arrivalLane="0" arrivalPos="max">
        <route edges="edge-south-SN edge-south-SE edge-east-EN edge-north-NW edge-west-WS edge-south-NS"/>
    </vehicle>
    <vehicle id="aggressive_car-flow-route-edge-south-SN_0_random-edge-south-NS_0_max-1936536251620018488---3970526675561110198--92-0.0" type="actor-aggressive_car-8180195591211487284" depart="0.00" departLane="0" departPos="random" departSpeed="max" arrivalLane="0" arrivalPos="max">
        <route edges="edge-south-SN edge-south-SE edge-east-EN edge-north-NW edge-west-WS edge-south-NS"/>
    </vehicle>
    <vehicle id="aggressive_car-flow-route-edge-south-SN_0_random-edge-south-NS_0_max-1936536251620018488---3970526675561110198--93-0.0" type="actor-aggressive_car-8180195591211487284" depart="0.00" departLane="0" departPos="random" departSpeed="max" arrivalLane="0" arrivalPos="max">
        <route edges="edge-south-SN edge-south-SE edge-east-EN edge-north-NW edge-west-WS edge-south-NS"/>
    </vehicle>
    <vehicle id="aggressive_car-flow-route-edge-south-SN_0_random-edge-south-NS_0_max-1936536251620018488---3970526675561110198--94-0.0" type="actor-aggressive_car-8180195591211487284" depart="0.00" departLane="0" departPos="random" departSpeed="max" arrivalLane="0" arrivalPos="max">
        <route edges="edge-south-SN edge-south-SE edge-east-EN edge-north-NW edge-west-WS edge-south-NS"/>
    </vehicle>
    <vehicle id="aggressive_car-flow-route-edge-south-SN_0_random-edge-south-NS_0_max-1936536251620018488---3970526675561110198--95-0.0" type="actor-aggressive_car-8180195591211487284" depart="0.00" departLane="0" departPos="random" departSpeed="max" arrivalLane="0" arrivalPos="max">
        <route edges="edge-south-SN edge-south-SE edge-east-EN edge-north-NW edge-west-WS edge-south-NS"/>
    </vehicle>
    <vehicle id="aggressive_car-flow-route-edge-south-SN_0_random-edge-south-NS_0_max-1936536251620018488---3970526675561110198--96-0.0" type="actor-aggressive_car-8180195591211487284" depart="0.00" departLane="0" departPos="random" departSpeed="max" arrivalLane="0" arrivalPos="max">
        <route edges="edge-south-SN edge-south-SE edge-east-EN edge-north-NW edge-west-WS edge-south-NS"/>
    </vehicle>
    <vehicle id="aggressive_car-flow-route-edge-south-SN_0_random-edge-south-NS_0_max-1936536251620018488---3970526675561110198--97-0.0" type="actor-aggressive_car-8180195591211487284" depart="0.00" departLane="0" departPos="random" departSpeed="max" arrivalLane="0" arrivalPos="max">
        <route edges="edge-south-SN edge-south-SE edge-east-EN edge-north-NW edge-west-WS edge-south-NS"/>
    </vehicle>
    <vehicle id="aggressive_car-flow-route-edge-south-SN_0_random-edge-south-NS_0_max-1936536251620018488---3970526675561110198--98-0.0" type="actor-aggressive_car-8180195591211487284" depart="0.00" departLane="0" departPos="random" departSpeed="max" arrivalLane="0" arrivalPos="max">
        <route edges="edge-south-SN edge-south-SE edge-east-EN edge-north-NW edge-west-WS edge-south-NS"/>
    </vehicle>
    <vehicle id="aggressive_car-flow-route-edge-south-SN_0_random-edge-south-NS_0_max-1936536251620018488---3970526675561110198--99-0.0" type="actor-aggressive_car-8180195591211487284" depart="0.00" departLane="0" departPos="random" departSpeed="max" arrivalLane="0" arrivalPos="max">
        <route edges="edge-south-SN edge-south-SE edge-east-EN edge-north-NW edge-west-WS edge-south-NS"/>
    </vehicle>
    <vehicle id="aggressive_car-flow-route-edge-south-SN_0_random-edge-west-EW_0_max--7953581022329579879---3970526675561110198--30-0.0" type="actor-aggressive_car-8180195591211487284" depart="0.00" departLane="0" departPos="random" departSpeed="max" arrivalLane="0" arrivalPos="max">
        <route edges="edge-south-SN edge-west-SW edge-west-EW"/>
    </vehicle>
    <vehicle id="aggressive_car-flow-route-edge-south-SN_0_random-edge-west-EW_0_max--7953581022329579879---3970526675561110198--31-0.0" type="actor-aggressive_car-8180195591211487284" depart="0.00" departLane="0" departPos="random" departSpeed="max" arrivalLane="0" arrivalPos="max">
        <route edges="edge-south-SN edge-west-SW edge-west-EW"/>
    </vehicle>
    <vehicle id="aggressive_car-flow-route-edge-south-SN_0_random-edge-west-EW_0_max--7953581022329579879---3970526675561110198--32-0.0" type="actor-aggressive_car-8180195591211487284" depart="0.00" departLane="0" departPos="random" departSpeed="max" arrivalLane="0" arrivalPos="max">
        <route edges="edge-south-SN edge-west-SW edge-west-EW"/>
    </vehicle>
    <vehicle id="aggressive_car-flow-route-edge-south-SN_0_random-edge-west-EW_0_max--7953581022329579879---3970526675561110198--33-0.0" type="actor-aggressive_car-8180195591211487284" depart="0.00" departLane="0" departPos="random" departSpeed="max" arrivalLane="0" arrivalPos="max">
        <route edges="edge-south-SN edge-west-SW edge-west-EW"/>
    </vehicle>
    <vehicle id="aggressive_car-flow-route-edge-south-SN_0_random-edge-west-EW_0_max--7953581022329579879---3970526675561110198--34-0.0" type="actor-aggressive_car-8180195591211487284" depart="0.00" departLane="0" departPos="random" departSpeed="max" arrivalLane="0" arrivalPos="max">